/*--------------------------------*- C++ -*----------------------------------*\
| Eel robot CFD case -- RANS turbulence model                                 |
\*---------------------------------------------------------------------------*/
FoamFile
{
    version     2.0;
    format      ascii;
    class       dictionary;
    object      turbulenceProperties;
}
// * * * * * * * * * * * * * * * * * * * * * * * * * * * * * * * * * * * * * //

simulationType  RAS;

RAS
{
    RASModel        kOmegaSST;
    turbulence      on;
    printCoeffs     on;
}

// ************************************************************************* //
